[General]
network = ReplicaRemoteWrite
cmdenv-config-name = test1
sim-time-limit = 3600s
tkenv-default-config = test1

[Config test1]

